LAMMPS (22 Dec 2022)
# LAMMPS input file
# Bulk TIP4P/2005 water system
# author : Simon Gravelle

# variables
variable pre equal 1 # desired pressure (Atm)
variable tem equal 293.15 # desired temperature (K)

# main parameters
units real # style of units (A, fs, Kcal/mol)
atom_style full # molecular + charge
bond_style harmonic
angle_style harmonic
boundary p p p # periodic boundary conditions
pair_style lj/cut/tip4p/long 1 2 1 1 0.105 10 # cut-off 1 nm
kspace_style pppm/tip4p 1.0e-5
pair_modify mix arithmetic tail yes # eij = sqrt(ei*ej), dij = 0.5*(di+dj)

# import positions and parameters
read_data conf.data
Reading data file ...
  orthogonal box = (-10.370135 -10.370135 -10.370135) to (10.370135 10.370135 10.370135)
  reading atoms ...
  900 atoms
  reading velocities ...
  900 velocities
  scanning bonds ...
  scanning angles ...
  reading bonds ...
  600 bonds
  reading angles ...
  300 angles
Finding 1-2 1-3 1-4 neighbors ...
     2 = max # of 1-2 neighbors
     1 = max # of 1-3 neighbors
     1 = max # of 1-4 neighbors
     2 = max # of special neighbors
include PARM.lammps
# TIP4P/2005 rigid water model parameters

# mass parameters
mass 1 15.9994 # O water TIP4P/2005
mass 2 1.008 # H water TIP4P/2005

# pair coeffs
pair_coeff 1 1 0.18481 3.165 # TIP4P/2005
pair_coeff 2 2 0.0 0.0 # TIP4P/2005

# bond coeffs
bond_coeff 1 0 0.9572 # TIP4P/2005

# angle coeffs
angle_coeff 1 0 104.52 # TIP4P/2005

# groups
group wat type 1 2 # water
900 atoms in group wat
group hyd type 2 # hydrogen
600 atoms in group hyd

# dynamics
timestep 2 # (fs)
fix myshk wat shake 1.0e-5 200 0 b 1 a 1 # shake with increased precision
Finding SHAKE clusters ...
       0 = # of size 2 clusters
       0 = # of size 3 clusters
       0 = # of size 4 clusters
     300 = # of frozen angles
  find clusters CPU = 0.000 seconds
fix mynpt all npt temp 293.15 293.15 100 iso 1 1 1000

# output
dump dp1 wat xtc 500 traj.xtc # print atom positions every 1 timestep
thermo 1000

# run
run 100000 # 200 ps
PPPM initialization ...
  extracting TIP4P info from pair style
  G vector (1/distance) = 0.31250113
  grid = 20 20 20
  stencil order = 5
  estimated absolute RMS force accuracy = 0.0030044428
  estimated relative force accuracy = 9.0477902e-06
  3d grid and FFT values/proc = 4913 1200
Generated 1 of 1 mixed pair_coeff terms from arithmetic mixing rule
Step          Temp          E_pair         E_mol          TotEng         Press          Volume
0   293.25385     -3553.3905      0             -3029.7842     -1294.3343      8921.6098
Averages over the last 51 of 101 rows, steps 50000 to 100000:
Temp E_pair E_mol TotEng Press Volume
291.111 -3589.95 0 -3070.17 -47.0675 9018.85
Loop time of 272.58 on 8 procs for 100000 steps with 900 atoms
