LAMMPS (20 Nov 2019)
# LAMMPS input file
# Bulk TIP4P/2005 water system
# author : Simon Gravelle
############### variables
variable pre equal 1 # desired pressure (Atm)
variable tem equal 293.15 # desired temperature (K)
############### main parameters
units real # style of units (A, fs, Kcal/mol)
atom_style full # molecular + charge
bond_style harmonic
angle_style harmonic
boundary p p p # periodic boundary conditions
pair_style lj/cut/tip4p/long 1 2 1 1 0.105 10 10 # cut-off 1 nm
kspace_style pppm/tip4p 1.0e-4
pair_modify mix arithmetic tail yes # eij = sqrt(ei*ej), dij = 0.5*(di+dj)
############### import positions and parameters
read_data conf.data
  orthogonal box = (-11.4085 -11.4085 -11.4085) to (11.4085 11.4085 11.4085)
  reading atoms ...
  1200 atoms
  reading velocities ...
  1200 velocities
  scanning bonds ...
  scanning angles ...
  reading bonds ...
  800 bonds
  reading angles ...
  400 angles
include PARM.lammps
############### mass parameters
mass 		1 15.9994 # O water TIP4P/2005
mass 		2 1.008 # H water TIP4P/2005
############### pair coeffs
pair_coeff 	1 1 0.18481 3.165 # TIP4P/2005
pair_coeff 	2 2 0.0 0.0 # TIP4P/2005
############### bond coeffs
bond_coeff 	1 0 0.9572 # TIP4P/2005
############### angle coeffs
angle_coeff 	1 0 104.52 # TIP4P/2005
############### groups # descriptions
group wat type 1 2 # water
1200 atoms in group wat
group hyd type 2 # hydrogen
800 atoms in group hyd
############### dynamics
timestep 2 # (fs)
fix myshk wat shake 1.0e-5 200 0 b 1 a 1 # shake with increases precision
  find clusters CPU = 0.000229508 secs
fix mynvt all nvt temp 293.15 293.15 100
############### output
dump dp1 wat xtc 500 traj.xtc
thermo 1000
############### run
run 500000 # 200 ps
PPPM initialization ...
  extracting TIP4P info from pair style
  G vector (1/distance) = 0.283588
  grid = 15 15 15
  stencil order = 5
  estimated absolute RMS force accuracy = 0.01686
  estimated relative force accuracy = 5.07734e-05
  3d grid and FFT values/proc = 4312 960
  update every 1 steps, delay 10 steps, check yes
Step Temp E_pair E_mol TotEng Press
0    299.67103   -4814.3383            0   -4100.6216   -98.701453
Averages over the last 251 of 501 rows, steps 250000 to 500000:
Temp E_pair E_mol TotEng Press
293.908 -4787.4 0 -4087.41 202.055
Loop time of 2492.83 on 4 procs for 500000 steps with 1200 atoms
