LAMMPS (20 Nov 2019)
# LAMMPS input file
# Single PEG in water system
# author : Simon Gravelle
units real
atom_style full
bond_style harmonic
angle_style charmm
dihedral_style charmm
pair_style lj/cut/tip4p/long 1 2 1 1 0.1546 12.0
kspace_style pppm/tip4p 1.0e-5
special_bonds lj 0.0 0.0 0.5
read_data PEG_H2O.data
  orthogonal box = (-10.6312 -10.6312 -10.6312) to (10.6312 10.6312 10.6312)
  reading atoms ...
  912 atoms
  reading velocities ...
  912 velocities
  scanning bonds ...
  scanning angles ...
  scanning dihedrals ...
  reading bonds ...
  629 bonds
  reading angles ...
  400 angles
  reading dihedrals ...
  74 dihedrals
include PARM.lammps
# Mass

mass 		1 15.9994 # H2O O
mass 		2 1.008 # H2O H
mass 		3 12.011 # CC32A
mass 		4 15.9994 # OC30A
mass 		5 1.008 # HCA2
mass 		6 15.9994 # OC311
mass 		7 1.008 # HCP1

# Pair Coeff

pair_coeff 	1 1 0.185199 3.1589
pair_coeff 	2 2 0.0 0.0
pair_coeff 	3 3 0.056 3.58141
pair_coeff 	4 4 0.100 2.93997
pair_coeff 	5 5 0.035 2.38761
pair_coeff 	6 6 0.192 3.14487
pair_coeff 	7 7 0.046 0.40001

# Bond coeff

bond_coeff 	1 0 0.9572
bond_coeff 	2 222.35 1.5300
bond_coeff 	3 308.79 1.1111
bond_coeff 	4 359.76 1.1415
bond_coeff 	5 427.715 1.1420
bond_coeff 	6 544.635 0.9600

# Angle coeff

angle_coeff 	1 0 104.52 0 0
angle_coeff	2 50.0000 109.0000 0.0000 0.0000
angle_coeff	3 26.5000 110.1000 22.5300 2.179
angle_coeff	4 45.0000 111.5000 0.0000 0.0000
angle_coeff	5 13.0258 109.4000 0.0000 0.0000
angle_coeff	6 35.5000 109.0000 5.4000 1.802
angle_coeff	7 55.0000 108.8900 0.0000 0.0000
angle_coeff	8 75.7000 110.1000 0.0000 0.0000
angle_coeff	9 95.0000 109.7000 0.0000 0.0000

# Dihedral coeff
# weighting factor put to 0, possibly wrong

dihedral_coeff	1 0.57 1 0 0
dihedral_coeff	2 0.29 2 0 0
dihedral_coeff	3 0.43 3 0 0
dihedral_coeff	4 0.59 1 180 0
dihedral_coeff	5 1.16 2 0 0
dihedral_coeff	6 0.12 1 0 0
dihedral_coeff	7 0.42 2 0 0
dihedral_coeff	8 0.29 3 0 0
dihedral_coeff	9 2.87 1 180 0
dihedral_coeff	10 0.03 2 0 0
dihedral_coeff	11 0.23 3 0 0
dihedral_coeff	12 1.36 1 180 0
dihedral_coeff	13 0.16 2 0 0
dihedral_coeff	14 1.01 3 0 0

group H2O type 1 2
846 atoms in group H2O
group PEG type 3 4 5 6 7
66 atoms in group PEG
delete_atoms overlap 1.5 H2O PEG mol yes
PPPM initialization ...
  extracting TIP4P info from pair style
  G vector (1/distance) = 0.256474
  grid = 16 16 16
  stencil order = 5
  estimated absolute RMS force accuracy = 0.00332799
  estimated relative force accuracy = 1.00221e-05
  3d grid and FFT values/proc = 5175 1024
  update every 1 steps, delay 10 steps, check yes
Deleted 0 atoms, new total = 912
Deleted 0 bonds, new total = 629
Deleted 0 angles, new total = 400
Deleted 0 dihedrals, new total = 74
fix myshk H2O shake 1.0e-5 200 0 b 1 a 1
  find clusters CPU = 0.000237124 secs
fix mynpt all nvt temp 300 300 100
dump dp1 all xtc 1000 traj.xtc
thermo 1000
run 200000
PPPM initialization ...
  extracting TIP4P info from pair style
  G vector (1/distance) = 0.256474
  grid = 16 16 16
  stencil order = 5
  estimated absolute RMS force accuracy = 0.00332799
  estimated relative force accuracy = 1.00221e-05
  3d grid and FFT values/proc = 5175 1024
  update every 1 steps, delay 10 steps, check yes
Step Temp E_pair E_mol TotEng Press
0      314.458   -2682.8969    96.978799   -1996.3315    555.99657
Averages over the last 101 of 201 rows, steps 100000 to 200000:
Temp E_pair E_mol TotEng Press
300.477 -2683.85 96.0395 -2024.44 -501.571
Loop time of 1587.05 on 4 procs for 200000 steps with 912 atoms
